version 3
run AlohaRanurado-8-20240403-00:18:18-28592
attr configname AlohaRanurado
attr datetime 20240403-00:18:18
attr datetimef 20240403-001818
attr experiment AlohaRanurado
attr inifile omnetpp.ini
attr iterationvars "$iaMean=4.5, $numHosts=20"
attr iterationvarsd iaMean=4.5/numHosts=20
attr iterationvarsf iaMean=4.5,numHosts=20-
attr measurement "$iaMean=4.5, $numHosts=20"
attr network Aloha
attr processid 28592
attr repetition 0
attr replication #0
attr resultdir results
attr runnumber 8
attr seedset 8
itervar iaMean 4.5
itervar numHosts 20
config description "slotted Aloha, overloaded"
config Aloha.slotTime 100ms
config Aloha.host[*].iaTime exponential(4.5s)
config Aloha.numHosts 20
config repeat 1
config sim-time-limit 2h
config network Aloha
config Aloha.numHosts 20
config Aloha.slotTime 0s
config Aloha.txRate 9.6kbps
config Aloha.host[*].pkLenBits 952b
config **.x "uniform(0m, 1000m)"
config **.y "uniform(0m, 1000m)"
config **.animationHoldTimeOnCollision 0s
config **.idleAnimationSpeed 1
config **.transmissionEdgeAnimationSpeed 1e-6
config **.midTransmissionAnimationSpeed 1e-1
config sim-time-limit 1000s
config repeat 3
config Aloha.host[*].iaTime exponential(2s)

par Aloha.server typename "\"Server\""
par Aloha.server x 873.429m
attr unit m
par Aloha.server y 11.1144m
attr unit m
par Aloha.server animationHoldTimeOnCollision 0s
attr unit s
scalar Aloha.server duration 7200
statistic Aloha.server collisionLength:histogram
field count 5030
field mean 0.099167691754563
field stddev 6.906746434411e-07
field min 0.099166667088
field max 0.099169346743
field sum 498.81348952545
field sqrsum 49.466182374677
attr recordingmode histogram
attr title "collision length"
bin	-inf	0
bin	0.09916595	0
bin	0.099166	0
bin	0.09916605	0
bin	0.0991661	0
bin	0.09916615	0
bin	0.0991662	0
bin	0.09916625	0
bin	0.0991663	0
bin	0.09916635	0
bin	0.0991664	0
bin	0.09916645	0
bin	0.0991665	0
bin	0.09916655	0
bin	0.0991666	0
bin	0.09916665	128
bin	0.0991667	161
bin	0.09916675	20
bin	0.0991668	207
bin	0.09916685	159
bin	0.0991669	78
bin	0.09916695	122
bin	0.099167	235
bin	0.09916705	198
bin	0.0991671	100
bin	0.09916715	131
bin	0.0991672	199
bin	0.09916725	147
bin	0.0991673	147
bin	0.09916735	72
bin	0.0991674	125
bin	0.09916745	112
bin	0.0991675	118
bin	0.09916755	20
bin	0.0991676	183
bin	0.09916765	87
bin	0.0991677	158
bin	0.09916775	97
bin	0.0991678	94
bin	0.09916785	109
bin	0.0991679	31
bin	0.09916795	116
bin	0.099168	23
bin	0.09916805	80
bin	0.0991681	55
bin	0.09916815	150
bin	0.0991682	83
bin	0.09916825	80
bin	0.0991683	85
bin	0.09916835	249
bin	0.0991684	121
bin	0.09916845	0
bin	0.0991685	29
bin	0.09916855	62
bin	0.0991686	66
bin	0.09916865	56
bin	0.0991687	104
bin	0.09916875	102
bin	0.0991688	65
bin	0.09916885	0
bin	0.0991689	100
bin	0.09916895	0
bin	0.099169	37
bin	0.09916905	0
bin	0.0991691	29
bin	0.09916915	37
bin	0.0991692	0
bin	0.09916925	0
bin	0.0991693	63
bin	0.09916935	0
bin	0.0991694	0
bin	0.09916945	0
bin	0.0991695	0
bin	0.09916955	0
bin	0.0991696	0
bin	0.09916965	0
bin	0.0991697	0
bin	0.09916975	0
bin	0.0991698	0
bin	0.09916985	0
bin	0.0991699	0
bin	0.09916995	0
bin	0.09917	0
bin	0.09917005	0
scalar Aloha.server collisionLength:mean 0.099167691754563
attr recordingmode mean
attr title "collision length, mean"
scalar Aloha.server collisionLength:sum 498.81348952545
attr recordingmode sum
attr title "collision length, sum"
scalar Aloha.server collisionLength:max 0.099169346743
attr recordingmode max
attr title "collision length, max"
statistic Aloha.server collisionMultiplicity:histogram
field count 5030
field mean 2.1347912524851
field stddev 0.37003800216915
field min 2
field max 5
field sum 10738
field sqrsum 23612
attr recordingmode histogram
attr source collision
attr title "collision multiplicity"
bin	-inf	0
bin	1	0
bin	2	4402
bin	3	579
bin	4	48
bin	5	1
bin	6	0
scalar Aloha.server collidedFrames:last 10738
attr recordingmode last
attr source sum(collision)
attr title "collided frames, last"
scalar Aloha.server channelUtilization:last 0.28116507879456
attr interpolationmode linear
attr recordingmode last
attr source timeavg(receive)
attr title "channel utilization, last"
scalar Aloha.server receivedFrames:last 20414
attr recordingmode last
attr source sum(receive)
attr title "received frames, last"
par Aloha.host[0] typename "\"Host\""
par Aloha.host[0] txRate 9600bps
attr unit bps
par Aloha.host[0] pkLenBits 952b
attr unit b
par Aloha.host[0] iaTime exponential(4.5s)
attr unit s
par Aloha.host[0] slotTime 0.1s
attr unit s
par Aloha.host[0] x 968.541m
attr unit m
par Aloha.host[0] y 239.44m
attr unit m
par Aloha.host[0] idleAnimationSpeed 1
par Aloha.host[0] transmissionEdgeAnimationSpeed 1e-06
par Aloha.host[0] midTransmissionAnimationSpeed 0.1
par Aloha.host[0] controlAnimationSpeed true
par Aloha.host[1] typename "\"Host\""
par Aloha.host[1] txRate 9600bps
attr unit bps
par Aloha.host[1] pkLenBits 952b
attr unit b
par Aloha.host[1] iaTime exponential(4.5s)
attr unit s
par Aloha.host[1] slotTime 0.1s
attr unit s
par Aloha.host[1] x 869.195m
attr unit m
par Aloha.host[1] y 377.517m
attr unit m
par Aloha.host[1] idleAnimationSpeed 1
par Aloha.host[1] transmissionEdgeAnimationSpeed 1e-06
par Aloha.host[1] midTransmissionAnimationSpeed 0.1
par Aloha.host[1] controlAnimationSpeed true
par Aloha.host[2] typename "\"Host\""
par Aloha.host[2] txRate 9600bps
attr unit bps
par Aloha.host[2] pkLenBits 952b
attr unit b
par Aloha.host[2] iaTime exponential(4.5s)
attr unit s
par Aloha.host[2] slotTime 0.1s
attr unit s
par Aloha.host[2] x 530.856m
attr unit m
par Aloha.host[2] y 816.461m
attr unit m
par Aloha.host[2] idleAnimationSpeed 1
par Aloha.host[2] transmissionEdgeAnimationSpeed 1e-06
par Aloha.host[2] midTransmissionAnimationSpeed 0.1
par Aloha.host[2] controlAnimationSpeed true
par Aloha.host[3] typename "\"Host\""
par Aloha.host[3] txRate 9600bps
attr unit bps
par Aloha.host[3] pkLenBits 952b
attr unit b
par Aloha.host[3] iaTime exponential(4.5s)
attr unit s
par Aloha.host[3] slotTime 0.1s
attr unit s
par Aloha.host[3] x 232.728m
attr unit m
par Aloha.host[3] y 422.351m
attr unit m
par Aloha.host[3] idleAnimationSpeed 1
par Aloha.host[3] transmissionEdgeAnimationSpeed 1e-06
par Aloha.host[3] midTransmissionAnimationSpeed 0.1
par Aloha.host[3] controlAnimationSpeed true
par Aloha.host[4] typename "\"Host\""
par Aloha.host[4] txRate 9600bps
attr unit bps
par Aloha.host[4] pkLenBits 952b
attr unit b
par Aloha.host[4] iaTime exponential(4.5s)
attr unit s
par Aloha.host[4] slotTime 0.1s
attr unit s
par Aloha.host[4] x 11.3988m
attr unit m
par Aloha.host[4] y 612.033m
attr unit m
par Aloha.host[4] idleAnimationSpeed 1
par Aloha.host[4] transmissionEdgeAnimationSpeed 1e-06
par Aloha.host[4] midTransmissionAnimationSpeed 0.1
par Aloha.host[4] controlAnimationSpeed true
par Aloha.host[5] typename "\"Host\""
par Aloha.host[5] txRate 9600bps
attr unit bps
par Aloha.host[5] pkLenBits 952b
attr unit b
par Aloha.host[5] iaTime exponential(4.5s)
attr unit s
par Aloha.host[5] slotTime 0.1s
attr unit s
par Aloha.host[5] x 430.469m
attr unit m
par Aloha.host[5] y 766.063m
attr unit m
par Aloha.host[5] idleAnimationSpeed 1
par Aloha.host[5] transmissionEdgeAnimationSpeed 1e-06
par Aloha.host[5] midTransmissionAnimationSpeed 0.1
par Aloha.host[5] controlAnimationSpeed true
par Aloha.host[6] typename "\"Host\""
par Aloha.host[6] txRate 9600bps
attr unit bps
par Aloha.host[6] pkLenBits 952b
attr unit b
par Aloha.host[6] iaTime exponential(4.5s)
attr unit s
par Aloha.host[6] slotTime 0.1s
attr unit s
par Aloha.host[6] x 402.351m
attr unit m
par Aloha.host[6] y 401.925m
attr unit m
par Aloha.host[6] idleAnimationSpeed 1
par Aloha.host[6] transmissionEdgeAnimationSpeed 1e-06
par Aloha.host[6] midTransmissionAnimationSpeed 0.1
par Aloha.host[6] controlAnimationSpeed true
par Aloha.host[7] typename "\"Host\""
par Aloha.host[7] txRate 9600bps
attr unit bps
par Aloha.host[7] pkLenBits 952b
attr unit b
par Aloha.host[7] iaTime exponential(4.5s)
attr unit s
par Aloha.host[7] slotTime 0.1s
attr unit s
par Aloha.host[7] x 522.675m
attr unit m
par Aloha.host[7] y 872.089m
attr unit m
par Aloha.host[7] idleAnimationSpeed 1
par Aloha.host[7] transmissionEdgeAnimationSpeed 1e-06
par Aloha.host[7] midTransmissionAnimationSpeed 0.1
par Aloha.host[7] controlAnimationSpeed true
par Aloha.host[8] typename "\"Host\""
par Aloha.host[8] txRate 9600bps
attr unit bps
par Aloha.host[8] pkLenBits 952b
attr unit b
par Aloha.host[8] iaTime exponential(4.5s)
attr unit s
par Aloha.host[8] slotTime 0.1s
attr unit s
par Aloha.host[8] x 478.392m
attr unit m
par Aloha.host[8] y 926.438m
attr unit m
par Aloha.host[8] idleAnimationSpeed 1
par Aloha.host[8] transmissionEdgeAnimationSpeed 1e-06
par Aloha.host[8] midTransmissionAnimationSpeed 0.1
par Aloha.host[8] controlAnimationSpeed true
par Aloha.host[9] typename "\"Host\""
par Aloha.host[9] txRate 9600bps
attr unit bps
par Aloha.host[9] pkLenBits 952b
attr unit b
par Aloha.host[9] iaTime exponential(4.5s)
attr unit s
par Aloha.host[9] slotTime 0.1s
attr unit s
par Aloha.host[9] x 555.356m
attr unit m
par Aloha.host[9] y 146.525m
attr unit m
par Aloha.host[9] idleAnimationSpeed 1
par Aloha.host[9] transmissionEdgeAnimationSpeed 1e-06
par Aloha.host[9] midTransmissionAnimationSpeed 0.1
par Aloha.host[9] controlAnimationSpeed true
par Aloha.host[10] typename "\"Host\""
par Aloha.host[10] txRate 9600bps
attr unit bps
par Aloha.host[10] pkLenBits 952b
attr unit b
par Aloha.host[10] iaTime exponential(4.5s)
attr unit s
par Aloha.host[10] slotTime 0.1s
attr unit s
par Aloha.host[10] x 543.386m
attr unit m
par Aloha.host[10] y 701.528m
attr unit m
par Aloha.host[10] idleAnimationSpeed 1
par Aloha.host[10] transmissionEdgeAnimationSpeed 1e-06
par Aloha.host[10] midTransmissionAnimationSpeed 0.1
par Aloha.host[10] controlAnimationSpeed true
par Aloha.host[11] typename "\"Host\""
par Aloha.host[11] txRate 9600bps
attr unit bps
par Aloha.host[11] pkLenBits 952b
attr unit b
par Aloha.host[11] iaTime exponential(4.5s)
attr unit s
par Aloha.host[11] slotTime 0.1s
attr unit s
par Aloha.host[11] x 760.896m
attr unit m
par Aloha.host[11] y 402.677m
attr unit m
par Aloha.host[11] idleAnimationSpeed 1
par Aloha.host[11] transmissionEdgeAnimationSpeed 1e-06
par Aloha.host[11] midTransmissionAnimationSpeed 0.1
par Aloha.host[11] controlAnimationSpeed true
par Aloha.host[12] typename "\"Host\""
par Aloha.host[12] txRate 9600bps
attr unit bps
par Aloha.host[12] pkLenBits 952b
attr unit b
par Aloha.host[12] iaTime exponential(4.5s)
attr unit s
par Aloha.host[12] slotTime 0.1s
attr unit s
par Aloha.host[12] x 712.375m
attr unit m
par Aloha.host[12] y 818.266m
attr unit m
par Aloha.host[12] idleAnimationSpeed 1
par Aloha.host[12] transmissionEdgeAnimationSpeed 1e-06
par Aloha.host[12] midTransmissionAnimationSpeed 0.1
par Aloha.host[12] controlAnimationSpeed true
par Aloha.host[13] typename "\"Host\""
par Aloha.host[13] txRate 9600bps
attr unit bps
par Aloha.host[13] pkLenBits 952b
attr unit b
par Aloha.host[13] iaTime exponential(4.5s)
attr unit s
par Aloha.host[13] slotTime 0.1s
attr unit s
par Aloha.host[13] x 619.682m
attr unit m
par Aloha.host[13] y 21.2813m
attr unit m
par Aloha.host[13] idleAnimationSpeed 1
par Aloha.host[13] transmissionEdgeAnimationSpeed 1e-06
par Aloha.host[13] midTransmissionAnimationSpeed 0.1
par Aloha.host[13] controlAnimationSpeed true
par Aloha.host[14] typename "\"Host\""
par Aloha.host[14] txRate 9600bps
attr unit bps
par Aloha.host[14] pkLenBits 952b
attr unit b
par Aloha.host[14] iaTime exponential(4.5s)
attr unit s
par Aloha.host[14] slotTime 0.1s
attr unit s
par Aloha.host[14] x 426.092m
attr unit m
par Aloha.host[14] y 352.812m
attr unit m
par Aloha.host[14] idleAnimationSpeed 1
par Aloha.host[14] transmissionEdgeAnimationSpeed 1e-06
par Aloha.host[14] midTransmissionAnimationSpeed 0.1
par Aloha.host[14] controlAnimationSpeed true
par Aloha.host[15] typename "\"Host\""
par Aloha.host[15] txRate 9600bps
attr unit bps
par Aloha.host[15] pkLenBits 952b
attr unit b
par Aloha.host[15] iaTime exponential(4.5s)
attr unit s
par Aloha.host[15] slotTime 0.1s
attr unit s
par Aloha.host[15] x 289.075m
attr unit m
par Aloha.host[15] y 482.124m
attr unit m
par Aloha.host[15] idleAnimationSpeed 1
par Aloha.host[15] transmissionEdgeAnimationSpeed 1e-06
par Aloha.host[15] midTransmissionAnimationSpeed 0.1
par Aloha.host[15] controlAnimationSpeed true
par Aloha.host[16] typename "\"Host\""
par Aloha.host[16] txRate 9600bps
attr unit bps
par Aloha.host[16] pkLenBits 952b
attr unit b
par Aloha.host[16] iaTime exponential(4.5s)
attr unit s
par Aloha.host[16] slotTime 0.1s
attr unit s
par Aloha.host[16] x 973.855m
attr unit m
par Aloha.host[16] y 874.816m
attr unit m
par Aloha.host[16] idleAnimationSpeed 1
par Aloha.host[16] transmissionEdgeAnimationSpeed 1e-06
par Aloha.host[16] midTransmissionAnimationSpeed 0.1
par Aloha.host[16] controlAnimationSpeed true
par Aloha.host[17] typename "\"Host\""
par Aloha.host[17] txRate 9600bps
attr unit bps
par Aloha.host[17] pkLenBits 952b
attr unit b
par Aloha.host[17] iaTime exponential(4.5s)
attr unit s
par Aloha.host[17] slotTime 0.1s
attr unit s
par Aloha.host[17] x 333.774m
attr unit m
par Aloha.host[17] y 53.8108m
attr unit m
par Aloha.host[17] idleAnimationSpeed 1
par Aloha.host[17] transmissionEdgeAnimationSpeed 1e-06
par Aloha.host[17] midTransmissionAnimationSpeed 0.1
par Aloha.host[17] controlAnimationSpeed true
par Aloha.host[18] typename "\"Host\""
par Aloha.host[18] txRate 9600bps
attr unit bps
par Aloha.host[18] pkLenBits 952b
attr unit b
par Aloha.host[18] iaTime exponential(4.5s)
attr unit s
par Aloha.host[18] slotTime 0.1s
attr unit s
par Aloha.host[18] x 218.801m
attr unit m
par Aloha.host[18] y 267.227m
attr unit m
par Aloha.host[18] idleAnimationSpeed 1
par Aloha.host[18] transmissionEdgeAnimationSpeed 1e-06
par Aloha.host[18] midTransmissionAnimationSpeed 0.1
par Aloha.host[18] controlAnimationSpeed true
par Aloha.host[19] typename "\"Host\""
par Aloha.host[19] txRate 9600bps
attr unit bps
par Aloha.host[19] pkLenBits 952b
attr unit b
par Aloha.host[19] iaTime exponential(4.5s)
attr unit s
par Aloha.host[19] slotTime 0.1s
attr unit s
par Aloha.host[19] x 65.8084m
attr unit m
par Aloha.host[19] y 292.142m
attr unit m
par Aloha.host[19] idleAnimationSpeed 1
par Aloha.host[19] transmissionEdgeAnimationSpeed 1e-06
par Aloha.host[19] midTransmissionAnimationSpeed 0.1
par Aloha.host[19] controlAnimationSpeed true
par Aloha typename "\"Aloha\""
par Aloha numHosts 20
par Aloha txRate 9600bps
attr unit bps
par Aloha slotTime 100ms
attr unit ms

