version 3
run AlohaRanurado-7-20240403-00:18:05-28592
attr configname AlohaRanurado
attr datetime 20240403-00:18:05
attr datetimef 20240403-001805
attr experiment AlohaRanurado
attr inifile omnetpp.ini
attr iterationvars "$iaMean=4, $numHosts=20"
attr iterationvarsd iaMean=4/numHosts=20
attr iterationvarsf iaMean=4,numHosts=20-
attr measurement "$iaMean=4, $numHosts=20"
attr network Aloha
attr processid 28592
attr repetition 0
attr replication #0
attr resultdir results
attr runnumber 7
attr seedset 7
itervar iaMean 4
itervar numHosts 20
config description "slotted Aloha, overloaded"
config Aloha.slotTime 100ms
config Aloha.host[*].iaTime exponential(4s)
config Aloha.numHosts 20
config repeat 1
config sim-time-limit 2h
config network Aloha
config Aloha.numHosts 20
config Aloha.slotTime 0s
config Aloha.txRate 9.6kbps
config Aloha.host[*].pkLenBits 952b
config **.x "uniform(0m, 1000m)"
config **.y "uniform(0m, 1000m)"
config **.animationHoldTimeOnCollision 0s
config **.idleAnimationSpeed 1
config **.transmissionEdgeAnimationSpeed 1e-6
config **.midTransmissionAnimationSpeed 1e-1
config sim-time-limit 1000s
config repeat 3
config Aloha.host[*].iaTime exponential(2s)

par Aloha.server typename "\"Server\""
par Aloha.server x 76.3083m
attr unit m
par Aloha.server y 227.339m
attr unit m
par Aloha.server animationHoldTimeOnCollision 0s
attr unit s
scalar Aloha.server duration 7200
statistic Aloha.server collisionLength:histogram
field count 5981
field mean 0.099167667404705
field stddev 6.487527475699e-07
field min 0.099166667874
field max 0.099169247751
field sum 593.12181874754
field sqrsum 58.818507254547
attr recordingmode histogram
attr title "collision length"
bin	-inf	0
bin	0.099166	0
bin	0.09916605	0
bin	0.0991661	0
bin	0.09916615	0
bin	0.0991662	0
bin	0.09916625	0
bin	0.0991663	0
bin	0.09916635	0
bin	0.0991664	0
bin	0.09916645	0
bin	0.0991665	0
bin	0.09916655	0
bin	0.0991666	0
bin	0.09916665	97
bin	0.0991667	174
bin	0.09916675	145
bin	0.0991668	198
bin	0.09916685	168
bin	0.0991669	258
bin	0.09916695	120
bin	0.099167	157
bin	0.09916705	107
bin	0.0991671	0
bin	0.09916715	169
bin	0.0991672	281
bin	0.09916725	163
bin	0.0991673	120
bin	0.09916735	201
bin	0.0991674	81
bin	0.09916745	211
bin	0.0991675	143
bin	0.09916755	237
bin	0.0991676	93
bin	0.09916765	128
bin	0.0991677	71
bin	0.09916775	275
bin	0.0991678	188
bin	0.09916785	125
bin	0.0991679	91
bin	0.09916795	208
bin	0.099168	150
bin	0.09916805	100
bin	0.0991681	170
bin	0.09916815	114
bin	0.0991682	40
bin	0.09916825	45
bin	0.0991683	64
bin	0.09916835	228
bin	0.0991684	69
bin	0.09916845	66
bin	0.0991685	68
bin	0.09916855	34
bin	0.0991686	0
bin	0.09916865	128
bin	0.0991687	73
bin	0.09916875	0
bin	0.0991688	87
bin	0.09916885	74
bin	0.0991689	36
bin	0.09916895	75
bin	0.099169	35
bin	0.09916905	35
bin	0.0991691	0
bin	0.09916915	0
bin	0.0991692	81
bin	0.09916925	0
bin	0.0991693	0
bin	0.09916935	0
bin	0.0991694	0
bin	0.09916945	0
bin	0.0991695	0
bin	0.09916955	0
bin	0.0991696	0
bin	0.09916965	0
bin	0.0991697	0
bin	0.09916975	0
bin	0.0991698	0
bin	0.09916985	0
bin	0.0991699	0
scalar Aloha.server collisionLength:mean 0.099167667404705
attr recordingmode mean
attr title "collision length, mean"
scalar Aloha.server collisionLength:sum 593.12181874754
attr recordingmode sum
attr title "collision length, sum"
scalar Aloha.server collisionLength:max 0.099169247751
attr recordingmode max
attr title "collision length, max"
statistic Aloha.server collisionMultiplicity:histogram
field count 5981
field mean 2.1593379033606
field stddev 0.40505810683893
field min 2
field max 5
field sum 12915
field sqrsum 28869
attr recordingmode histogram
attr source collision
attr title "collision multiplicity"
bin	-inf	0
bin	1	0
bin	2	5116
bin	3	779
bin	4	84
bin	5	2
bin	6	0
scalar Aloha.server collidedFrames:last 12915
attr recordingmode last
attr source sum(collision)
attr title "collided frames, last"
scalar Aloha.server channelUtilization:last 0.30184276883859
attr interpolationmode linear
attr recordingmode last
attr source timeavg(receive)
attr title "channel utilization, last"
scalar Aloha.server receivedFrames:last 21915
attr recordingmode last
attr source sum(receive)
attr title "received frames, last"
par Aloha.host[0] typename "\"Host\""
par Aloha.host[0] txRate 9600bps
attr unit bps
par Aloha.host[0] pkLenBits 952b
attr unit b
par Aloha.host[0] iaTime exponential(4s)
attr unit s
par Aloha.host[0] slotTime 0.1s
attr unit s
par Aloha.host[0] x 779.919m
attr unit m
par Aloha.host[0] y 318.972m
attr unit m
par Aloha.host[0] idleAnimationSpeed 1
par Aloha.host[0] transmissionEdgeAnimationSpeed 1e-06
par Aloha.host[0] midTransmissionAnimationSpeed 0.1
par Aloha.host[0] controlAnimationSpeed true
par Aloha.host[1] typename "\"Host\""
par Aloha.host[1] txRate 9600bps
attr unit bps
par Aloha.host[1] pkLenBits 952b
attr unit b
par Aloha.host[1] iaTime exponential(4s)
attr unit s
par Aloha.host[1] slotTime 0.1s
attr unit s
par Aloha.host[1] x 438.409m
attr unit m
par Aloha.host[1] y 978.223m
attr unit m
par Aloha.host[1] idleAnimationSpeed 1
par Aloha.host[1] transmissionEdgeAnimationSpeed 1e-06
par Aloha.host[1] midTransmissionAnimationSpeed 0.1
par Aloha.host[1] controlAnimationSpeed true
par Aloha.host[2] typename "\"Host\""
par Aloha.host[2] txRate 9600bps
attr unit bps
par Aloha.host[2] pkLenBits 952b
attr unit b
par Aloha.host[2] iaTime exponential(4s)
attr unit s
par Aloha.host[2] slotTime 0.1s
attr unit s
par Aloha.host[2] x 723.465m
attr unit m
par Aloha.host[2] y 455.585m
attr unit m
par Aloha.host[2] idleAnimationSpeed 1
par Aloha.host[2] transmissionEdgeAnimationSpeed 1e-06
par Aloha.host[2] midTransmissionAnimationSpeed 0.1
par Aloha.host[2] controlAnimationSpeed true
par Aloha.host[3] typename "\"Host\""
par Aloha.host[3] txRate 9600bps
attr unit bps
par Aloha.host[3] pkLenBits 952b
attr unit b
par Aloha.host[3] iaTime exponential(4s)
attr unit s
par Aloha.host[3] slotTime 0.1s
attr unit s
par Aloha.host[3] x 977.99m
attr unit m
par Aloha.host[3] y 308.013m
attr unit m
par Aloha.host[3] idleAnimationSpeed 1
par Aloha.host[3] transmissionEdgeAnimationSpeed 1e-06
par Aloha.host[3] midTransmissionAnimationSpeed 0.1
par Aloha.host[3] controlAnimationSpeed true
par Aloha.host[4] typename "\"Host\""
par Aloha.host[4] txRate 9600bps
attr unit bps
par Aloha.host[4] pkLenBits 952b
attr unit b
par Aloha.host[4] iaTime exponential(4s)
attr unit s
par Aloha.host[4] slotTime 0.1s
attr unit s
par Aloha.host[4] x 538.496m
attr unit m
par Aloha.host[4] y 263.871m
attr unit m
par Aloha.host[4] idleAnimationSpeed 1
par Aloha.host[4] transmissionEdgeAnimationSpeed 1e-06
par Aloha.host[4] midTransmissionAnimationSpeed 0.1
par Aloha.host[4] controlAnimationSpeed true
par Aloha.host[5] typename "\"Host\""
par Aloha.host[5] txRate 9600bps
attr unit bps
par Aloha.host[5] pkLenBits 952b
attr unit b
par Aloha.host[5] iaTime exponential(4s)
attr unit s
par Aloha.host[5] slotTime 0.1s
attr unit s
par Aloha.host[5] x 501.12m
attr unit m
par Aloha.host[5] y 86.7434m
attr unit m
par Aloha.host[5] idleAnimationSpeed 1
par Aloha.host[5] transmissionEdgeAnimationSpeed 1e-06
par Aloha.host[5] midTransmissionAnimationSpeed 0.1
par Aloha.host[5] controlAnimationSpeed true
par Aloha.host[6] typename "\"Host\""
par Aloha.host[6] txRate 9600bps
attr unit bps
par Aloha.host[6] pkLenBits 952b
attr unit b
par Aloha.host[6] iaTime exponential(4s)
attr unit s
par Aloha.host[6] slotTime 0.1s
attr unit s
par Aloha.host[6] x 72.0511m
attr unit m
par Aloha.host[6] y 419.372m
attr unit m
par Aloha.host[6] idleAnimationSpeed 1
par Aloha.host[6] transmissionEdgeAnimationSpeed 1e-06
par Aloha.host[6] midTransmissionAnimationSpeed 0.1
par Aloha.host[6] controlAnimationSpeed true
par Aloha.host[7] typename "\"Host\""
par Aloha.host[7] txRate 9600bps
attr unit bps
par Aloha.host[7] pkLenBits 952b
attr unit b
par Aloha.host[7] iaTime exponential(4s)
attr unit s
par Aloha.host[7] slotTime 0.1s
attr unit s
par Aloha.host[7] x 268.439m
attr unit m
par Aloha.host[7] y 15.9104m
attr unit m
par Aloha.host[7] idleAnimationSpeed 1
par Aloha.host[7] transmissionEdgeAnimationSpeed 1e-06
par Aloha.host[7] midTransmissionAnimationSpeed 0.1
par Aloha.host[7] controlAnimationSpeed true
par Aloha.host[8] typename "\"Host\""
par Aloha.host[8] txRate 9600bps
attr unit bps
par Aloha.host[8] pkLenBits 952b
attr unit b
par Aloha.host[8] iaTime exponential(4s)
attr unit s
par Aloha.host[8] slotTime 0.1s
attr unit s
par Aloha.host[8] x 499.882m
attr unit m
par Aloha.host[8] y 527.765m
attr unit m
par Aloha.host[8] idleAnimationSpeed 1
par Aloha.host[8] transmissionEdgeAnimationSpeed 1e-06
par Aloha.host[8] midTransmissionAnimationSpeed 0.1
par Aloha.host[8] controlAnimationSpeed true
par Aloha.host[9] typename "\"Host\""
par Aloha.host[9] txRate 9600bps
attr unit bps
par Aloha.host[9] pkLenBits 952b
attr unit b
par Aloha.host[9] iaTime exponential(4s)
attr unit s
par Aloha.host[9] slotTime 0.1s
attr unit s
par Aloha.host[9] x 679.23m
attr unit m
par Aloha.host[9] y 868.801m
attr unit m
par Aloha.host[9] idleAnimationSpeed 1
par Aloha.host[9] transmissionEdgeAnimationSpeed 1e-06
par Aloha.host[9] midTransmissionAnimationSpeed 0.1
par Aloha.host[9] controlAnimationSpeed true
par Aloha.host[10] typename "\"Host\""
par Aloha.host[10] txRate 9600bps
attr unit bps
par Aloha.host[10] pkLenBits 952b
attr unit b
par Aloha.host[10] iaTime exponential(4s)
attr unit s
par Aloha.host[10] slotTime 0.1s
attr unit s
par Aloha.host[10] x 803.739m
attr unit m
par Aloha.host[10] y 330.839m
attr unit m
par Aloha.host[10] idleAnimationSpeed 1
par Aloha.host[10] transmissionEdgeAnimationSpeed 1e-06
par Aloha.host[10] midTransmissionAnimationSpeed 0.1
par Aloha.host[10] controlAnimationSpeed true
par Aloha.host[11] typename "\"Host\""
par Aloha.host[11] txRate 9600bps
attr unit bps
par Aloha.host[11] pkLenBits 952b
attr unit b
par Aloha.host[11] iaTime exponential(4s)
attr unit s
par Aloha.host[11] slotTime 0.1s
attr unit s
par Aloha.host[11] x 380.941m
attr unit m
par Aloha.host[11] y 392.942m
attr unit m
par Aloha.host[11] idleAnimationSpeed 1
par Aloha.host[11] transmissionEdgeAnimationSpeed 1e-06
par Aloha.host[11] midTransmissionAnimationSpeed 0.1
par Aloha.host[11] controlAnimationSpeed true
par Aloha.host[12] typename "\"Host\""
par Aloha.host[12] txRate 9600bps
attr unit bps
par Aloha.host[12] pkLenBits 952b
attr unit b
par Aloha.host[12] iaTime exponential(4s)
attr unit s
par Aloha.host[12] slotTime 0.1s
attr unit s
par Aloha.host[12] x 65.9363m
attr unit m
par Aloha.host[12] y 674.33m
attr unit m
par Aloha.host[12] idleAnimationSpeed 1
par Aloha.host[12] transmissionEdgeAnimationSpeed 1e-06
par Aloha.host[12] midTransmissionAnimationSpeed 0.1
par Aloha.host[12] controlAnimationSpeed true
par Aloha.host[13] typename "\"Host\""
par Aloha.host[13] txRate 9600bps
attr unit bps
par Aloha.host[13] pkLenBits 952b
attr unit b
par Aloha.host[13] iaTime exponential(4s)
attr unit s
par Aloha.host[13] slotTime 0.1s
attr unit s
par Aloha.host[13] x 288.146m
attr unit m
par Aloha.host[13] y 672.317m
attr unit m
par Aloha.host[13] idleAnimationSpeed 1
par Aloha.host[13] transmissionEdgeAnimationSpeed 1e-06
par Aloha.host[13] midTransmissionAnimationSpeed 0.1
par Aloha.host[13] controlAnimationSpeed true
par Aloha.host[14] typename "\"Host\""
par Aloha.host[14] txRate 9600bps
attr unit bps
par Aloha.host[14] pkLenBits 952b
attr unit b
par Aloha.host[14] iaTime exponential(4s)
attr unit s
par Aloha.host[14] slotTime 0.1s
attr unit s
par Aloha.host[14] x 909.594m
attr unit m
par Aloha.host[14] y 694.032m
attr unit m
par Aloha.host[14] idleAnimationSpeed 1
par Aloha.host[14] transmissionEdgeAnimationSpeed 1e-06
par Aloha.host[14] midTransmissionAnimationSpeed 0.1
par Aloha.host[14] controlAnimationSpeed true
par Aloha.host[15] typename "\"Host\""
par Aloha.host[15] txRate 9600bps
attr unit bps
par Aloha.host[15] pkLenBits 952b
attr unit b
par Aloha.host[15] iaTime exponential(4s)
attr unit s
par Aloha.host[15] slotTime 0.1s
attr unit s
par Aloha.host[15] x 213.385m
attr unit m
par Aloha.host[15] y 345.973m
attr unit m
par Aloha.host[15] idleAnimationSpeed 1
par Aloha.host[15] transmissionEdgeAnimationSpeed 1e-06
par Aloha.host[15] midTransmissionAnimationSpeed 0.1
par Aloha.host[15] controlAnimationSpeed true
par Aloha.host[16] typename "\"Host\""
par Aloha.host[16] txRate 9600bps
attr unit bps
par Aloha.host[16] pkLenBits 952b
attr unit b
par Aloha.host[16] iaTime exponential(4s)
attr unit s
par Aloha.host[16] slotTime 0.1s
attr unit s
par Aloha.host[16] x 452.124m
attr unit m
par Aloha.host[16] y 929.528m
attr unit m
par Aloha.host[16] idleAnimationSpeed 1
par Aloha.host[16] transmissionEdgeAnimationSpeed 1e-06
par Aloha.host[16] midTransmissionAnimationSpeed 0.1
par Aloha.host[16] controlAnimationSpeed true
par Aloha.host[17] typename "\"Host\""
par Aloha.host[17] txRate 9600bps
attr unit bps
par Aloha.host[17] pkLenBits 952b
attr unit b
par Aloha.host[17] iaTime exponential(4s)
attr unit s
par Aloha.host[17] slotTime 0.1s
attr unit s
par Aloha.host[17] x 931.206m
attr unit m
par Aloha.host[17] y 262.584m
attr unit m
par Aloha.host[17] idleAnimationSpeed 1
par Aloha.host[17] transmissionEdgeAnimationSpeed 1e-06
par Aloha.host[17] midTransmissionAnimationSpeed 0.1
par Aloha.host[17] controlAnimationSpeed true
par Aloha.host[18] typename "\"Host\""
par Aloha.host[18] txRate 9600bps
attr unit bps
par Aloha.host[18] pkLenBits 952b
attr unit b
par Aloha.host[18] iaTime exponential(4s)
attr unit s
par Aloha.host[18] slotTime 0.1s
attr unit s
par Aloha.host[18] x 24.8992m
attr unit m
par Aloha.host[18] y 750.763m
attr unit m
par Aloha.host[18] idleAnimationSpeed 1
par Aloha.host[18] transmissionEdgeAnimationSpeed 1e-06
par Aloha.host[18] midTransmissionAnimationSpeed 0.1
par Aloha.host[18] controlAnimationSpeed true
par Aloha.host[19] typename "\"Host\""
par Aloha.host[19] txRate 9600bps
attr unit bps
par Aloha.host[19] pkLenBits 952b
attr unit b
par Aloha.host[19] iaTime exponential(4s)
attr unit s
par Aloha.host[19] slotTime 0.1s
attr unit s
par Aloha.host[19] x 600.549m
attr unit m
par Aloha.host[19] y 254.894m
attr unit m
par Aloha.host[19] idleAnimationSpeed 1
par Aloha.host[19] transmissionEdgeAnimationSpeed 1e-06
par Aloha.host[19] midTransmissionAnimationSpeed 0.1
par Aloha.host[19] controlAnimationSpeed true
par Aloha typename "\"Aloha\""
par Aloha numHosts 20
par Aloha txRate 9600bps
attr unit bps
par Aloha slotTime 100ms
attr unit ms

