version 3
run AlohaRanurado-6-20240403-00:17:52-28592
attr configname AlohaRanurado
attr datetime 20240403-00:17:52
attr datetimef 20240403-001752
attr experiment AlohaRanurado
attr inifile omnetpp.ini
attr iterationvars "$iaMean=3.5, $numHosts=20"
attr iterationvarsd iaMean=3.5/numHosts=20
attr iterationvarsf iaMean=3.5,numHosts=20-
attr measurement "$iaMean=3.5, $numHosts=20"
attr network Aloha
attr processid 28592
attr repetition 0
attr replication #0
attr resultdir results
attr runnumber 6
attr seedset 6
itervar iaMean 3.5
itervar numHosts 20
config description "slotted Aloha, overloaded"
config Aloha.slotTime 100ms
config Aloha.host[*].iaTime exponential(3.5s)
config Aloha.numHosts 20
config repeat 1
config sim-time-limit 2h
config network Aloha
config Aloha.numHosts 20
config Aloha.slotTime 0s
config Aloha.txRate 9.6kbps
config Aloha.host[*].pkLenBits 952b
config **.x "uniform(0m, 1000m)"
config **.y "uniform(0m, 1000m)"
config **.animationHoldTimeOnCollision 0s
config **.idleAnimationSpeed 1
config **.transmissionEdgeAnimationSpeed 1e-6
config **.midTransmissionAnimationSpeed 1e-1
config sim-time-limit 1000s
config repeat 3
config Aloha.host[*].iaTime exponential(2s)

par Aloha.server typename "\"Server\""
par Aloha.server x 892.86m
attr unit m
par Aloha.server y 947.476m
attr unit m
par Aloha.server animationHoldTimeOnCollision 0s
attr unit s
scalar Aloha.server duration 7200
statistic Aloha.server collisionLength:histogram
field count 7529
field mean 0.099167772440523
field stddev 7.3782286579181e-07
field min 0.099166667916
field max 0.099169754184
field sum 746.6341587047
field sqrsum 74.042046350847
attr recordingmode histogram
attr title "collision length"
bin	-inf	0
bin	0.0991659	0
bin	0.09916595	0
bin	0.099166	0
bin	0.09916605	0
bin	0.0991661	0
bin	0.09916615	0
bin	0.0991662	0
bin	0.09916625	0
bin	0.0991663	0
bin	0.09916635	0
bin	0.0991664	0
bin	0.09916645	0
bin	0.0991665	0
bin	0.09916655	0
bin	0.0991666	0
bin	0.09916665	143
bin	0.0991667	186
bin	0.09916675	179
bin	0.0991668	217
bin	0.09916685	161
bin	0.0991669	204
bin	0.09916695	250
bin	0.099167	112
bin	0.09916705	127
bin	0.0991671	169
bin	0.09916715	243
bin	0.0991672	268
bin	0.09916725	153
bin	0.0991673	180
bin	0.09916735	82
bin	0.0991674	285
bin	0.09916745	150
bin	0.0991675	147
bin	0.09916755	81
bin	0.0991676	140
bin	0.09916765	372
bin	0.0991677	65
bin	0.09916775	144
bin	0.0991678	201
bin	0.09916785	133
bin	0.0991679	112
bin	0.09916795	453
bin	0.099168	296
bin	0.09916805	99
bin	0.0991681	165
bin	0.09916815	156
bin	0.0991682	42
bin	0.09916825	171
bin	0.0991683	29
bin	0.09916835	43
bin	0.0991684	136
bin	0.09916845	130
bin	0.0991685	90
bin	0.09916855	75
bin	0.0991686	138
bin	0.09916865	54
bin	0.0991687	41
bin	0.09916875	98
bin	0.0991688	43
bin	0.09916885	0
bin	0.0991689	45
bin	0.09916895	99
bin	0.099169	45
bin	0.09916905	0
bin	0.0991691	138
bin	0.09916915	84
bin	0.0991692	0
bin	0.09916925	148
bin	0.0991693	51
bin	0.09916935	0
bin	0.0991694	57
bin	0.09916945	0
bin	0.0991695	0
bin	0.09916955	0
bin	0.0991696	49
bin	0.09916965	0
bin	0.0991697	0
bin	0.09916975	50
bin	0.0991698	0
bin	0.09916985	0
bin	0.0991699	0
bin	0.09916995	0
bin	0.09917	0
bin	0.09917005	0
bin	0.0991701	0
bin	0.09917015	0
bin	0.0991702	0
bin	0.09917025	0
bin	0.0991703	0
bin	0.09917035	0
scalar Aloha.server collisionLength:mean 0.099167772440523
attr recordingmode mean
attr title "collision length, mean"
scalar Aloha.server collisionLength:sum 746.6341587047
attr recordingmode sum
attr title "collision length, sum"
scalar Aloha.server collisionLength:max 0.099169754184
attr recordingmode max
attr title "collision length, max"
statistic Aloha.server collisionMultiplicity:histogram
field count 7529
field mean 2.1819630761057
field stddev 0.44708148308256
field min 2
field max 6
field sum 16428
field sqrsum 37350
attr recordingmode histogram
attr source collision
attr title "collision multiplicity"
bin	-inf	0
bin	1	0
bin	2	6336
bin	3	1030
bin	4	150
bin	5	12
bin	6	1
bin	7	0
scalar Aloha.server collidedFrames:last 16428
attr recordingmode last
attr source sum(collision)
attr title "collided frames, last"
scalar Aloha.server channelUtilization:last 0.31771848324111
attr interpolationmode linear
attr recordingmode last
attr source timeavg(receive)
attr title "channel utilization, last"
scalar Aloha.server receivedFrames:last 23067
attr recordingmode last
attr source sum(receive)
attr title "received frames, last"
par Aloha.host[0] typename "\"Host\""
par Aloha.host[0] txRate 9600bps
attr unit bps
par Aloha.host[0] pkLenBits 952b
attr unit b
par Aloha.host[0] iaTime exponential(3.5s)
attr unit s
par Aloha.host[0] slotTime 0.1s
attr unit s
par Aloha.host[0] x 331.98m
attr unit m
par Aloha.host[0] y 209.406m
attr unit m
par Aloha.host[0] idleAnimationSpeed 1
par Aloha.host[0] transmissionEdgeAnimationSpeed 1e-06
par Aloha.host[0] midTransmissionAnimationSpeed 0.1
par Aloha.host[0] controlAnimationSpeed true
par Aloha.host[1] typename "\"Host\""
par Aloha.host[1] txRate 9600bps
attr unit bps
par Aloha.host[1] pkLenBits 952b
attr unit b
par Aloha.host[1] iaTime exponential(3.5s)
attr unit s
par Aloha.host[1] slotTime 0.1s
attr unit s
par Aloha.host[1] x 821.229m
attr unit m
par Aloha.host[1] y 64.2546m
attr unit m
par Aloha.host[1] idleAnimationSpeed 1
par Aloha.host[1] transmissionEdgeAnimationSpeed 1e-06
par Aloha.host[1] midTransmissionAnimationSpeed 0.1
par Aloha.host[1] controlAnimationSpeed true
par Aloha.host[2] typename "\"Host\""
par Aloha.host[2] txRate 9600bps
attr unit bps
par Aloha.host[2] pkLenBits 952b
attr unit b
par Aloha.host[2] iaTime exponential(3.5s)
attr unit s
par Aloha.host[2] slotTime 0.1s
attr unit s
par Aloha.host[2] x 41.6966m
attr unit m
par Aloha.host[2] y 370.109m
attr unit m
par Aloha.host[2] idleAnimationSpeed 1
par Aloha.host[2] transmissionEdgeAnimationSpeed 1e-06
par Aloha.host[2] midTransmissionAnimationSpeed 0.1
par Aloha.host[2] controlAnimationSpeed true
par Aloha.host[3] typename "\"Host\""
par Aloha.host[3] txRate 9600bps
attr unit bps
par Aloha.host[3] pkLenBits 952b
attr unit b
par Aloha.host[3] iaTime exponential(3.5s)
attr unit s
par Aloha.host[3] slotTime 0.1s
attr unit s
par Aloha.host[3] x 107.657m
attr unit m
par Aloha.host[3] y 985.029m
attr unit m
par Aloha.host[3] idleAnimationSpeed 1
par Aloha.host[3] transmissionEdgeAnimationSpeed 1e-06
par Aloha.host[3] midTransmissionAnimationSpeed 0.1
par Aloha.host[3] controlAnimationSpeed true
par Aloha.host[4] typename "\"Host\""
par Aloha.host[4] txRate 9600bps
attr unit bps
par Aloha.host[4] pkLenBits 952b
attr unit b
par Aloha.host[4] iaTime exponential(3.5s)
attr unit s
par Aloha.host[4] slotTime 0.1s
attr unit s
par Aloha.host[4] x 595.052m
attr unit m
par Aloha.host[4] y 99.4717m
attr unit m
par Aloha.host[4] idleAnimationSpeed 1
par Aloha.host[4] transmissionEdgeAnimationSpeed 1e-06
par Aloha.host[4] midTransmissionAnimationSpeed 0.1
par Aloha.host[4] controlAnimationSpeed true
par Aloha.host[5] typename "\"Host\""
par Aloha.host[5] txRate 9600bps
attr unit bps
par Aloha.host[5] pkLenBits 952b
attr unit b
par Aloha.host[5] iaTime exponential(3.5s)
attr unit s
par Aloha.host[5] slotTime 0.1s
attr unit s
par Aloha.host[5] x 529.817m
attr unit m
par Aloha.host[5] y 608.474m
attr unit m
par Aloha.host[5] idleAnimationSpeed 1
par Aloha.host[5] transmissionEdgeAnimationSpeed 1e-06
par Aloha.host[5] midTransmissionAnimationSpeed 0.1
par Aloha.host[5] controlAnimationSpeed true
par Aloha.host[6] typename "\"Host\""
par Aloha.host[6] txRate 9600bps
attr unit bps
par Aloha.host[6] pkLenBits 952b
attr unit b
par Aloha.host[6] iaTime exponential(3.5s)
attr unit s
par Aloha.host[6] slotTime 0.1s
attr unit s
par Aloha.host[6] x 418.807m
attr unit m
par Aloha.host[6] y 530.396m
attr unit m
par Aloha.host[6] idleAnimationSpeed 1
par Aloha.host[6] transmissionEdgeAnimationSpeed 1e-06
par Aloha.host[6] midTransmissionAnimationSpeed 0.1
par Aloha.host[6] controlAnimationSpeed true
par Aloha.host[7] typename "\"Host\""
par Aloha.host[7] txRate 9600bps
attr unit bps
par Aloha.host[7] pkLenBits 952b
attr unit b
par Aloha.host[7] iaTime exponential(3.5s)
attr unit s
par Aloha.host[7] slotTime 0.1s
attr unit s
par Aloha.host[7] x 335.408m
attr unit m
par Aloha.host[7] y 482.833m
attr unit m
par Aloha.host[7] idleAnimationSpeed 1
par Aloha.host[7] transmissionEdgeAnimationSpeed 1e-06
par Aloha.host[7] midTransmissionAnimationSpeed 0.1
par Aloha.host[7] controlAnimationSpeed true
par Aloha.host[8] typename "\"Host\""
par Aloha.host[8] txRate 9600bps
attr unit bps
par Aloha.host[8] pkLenBits 952b
attr unit b
par Aloha.host[8] iaTime exponential(3.5s)
attr unit s
par Aloha.host[8] slotTime 0.1s
attr unit s
par Aloha.host[8] x 622.519m
attr unit m
par Aloha.host[8] y 825.209m
attr unit m
par Aloha.host[8] idleAnimationSpeed 1
par Aloha.host[8] transmissionEdgeAnimationSpeed 1e-06
par Aloha.host[8] midTransmissionAnimationSpeed 0.1
par Aloha.host[8] controlAnimationSpeed true
par Aloha.host[9] typename "\"Host\""
par Aloha.host[9] txRate 9600bps
attr unit bps
par Aloha.host[9] pkLenBits 952b
attr unit b
par Aloha.host[9] iaTime exponential(3.5s)
attr unit s
par Aloha.host[9] slotTime 0.1s
attr unit s
par Aloha.host[9] x 438.141m
attr unit m
par Aloha.host[9] y 755.013m
attr unit m
par Aloha.host[9] idleAnimationSpeed 1
par Aloha.host[9] transmissionEdgeAnimationSpeed 1e-06
par Aloha.host[9] midTransmissionAnimationSpeed 0.1
par Aloha.host[9] controlAnimationSpeed true
par Aloha.host[10] typename "\"Host\""
par Aloha.host[10] txRate 9600bps
attr unit bps
par Aloha.host[10] pkLenBits 952b
attr unit b
par Aloha.host[10] iaTime exponential(3.5s)
attr unit s
par Aloha.host[10] slotTime 0.1s
attr unit s
par Aloha.host[10] x 735.882m
attr unit m
par Aloha.host[10] y 389.976m
attr unit m
par Aloha.host[10] idleAnimationSpeed 1
par Aloha.host[10] transmissionEdgeAnimationSpeed 1e-06
par Aloha.host[10] midTransmissionAnimationSpeed 0.1
par Aloha.host[10] controlAnimationSpeed true
par Aloha.host[11] typename "\"Host\""
par Aloha.host[11] txRate 9600bps
attr unit bps
par Aloha.host[11] pkLenBits 952b
attr unit b
par Aloha.host[11] iaTime exponential(3.5s)
attr unit s
par Aloha.host[11] slotTime 0.1s
attr unit s
par Aloha.host[11] x 518.036m
attr unit m
par Aloha.host[11] y 239.814m
attr unit m
par Aloha.host[11] idleAnimationSpeed 1
par Aloha.host[11] transmissionEdgeAnimationSpeed 1e-06
par Aloha.host[11] midTransmissionAnimationSpeed 0.1
par Aloha.host[11] controlAnimationSpeed true
par Aloha.host[12] typename "\"Host\""
par Aloha.host[12] txRate 9600bps
attr unit bps
par Aloha.host[12] pkLenBits 952b
attr unit b
par Aloha.host[12] iaTime exponential(3.5s)
attr unit s
par Aloha.host[12] slotTime 0.1s
attr unit s
par Aloha.host[12] x 578.859m
attr unit m
par Aloha.host[12] y 155.615m
attr unit m
par Aloha.host[12] idleAnimationSpeed 1
par Aloha.host[12] transmissionEdgeAnimationSpeed 1e-06
par Aloha.host[12] midTransmissionAnimationSpeed 0.1
par Aloha.host[12] controlAnimationSpeed true
par Aloha.host[13] typename "\"Host\""
par Aloha.host[13] txRate 9600bps
attr unit bps
par Aloha.host[13] pkLenBits 952b
attr unit b
par Aloha.host[13] iaTime exponential(3.5s)
attr unit s
par Aloha.host[13] slotTime 0.1s
attr unit s
par Aloha.host[13] x 645.355m
attr unit m
par Aloha.host[13] y 724.329m
attr unit m
par Aloha.host[13] idleAnimationSpeed 1
par Aloha.host[13] transmissionEdgeAnimationSpeed 1e-06
par Aloha.host[13] midTransmissionAnimationSpeed 0.1
par Aloha.host[13] controlAnimationSpeed true
par Aloha.host[14] typename "\"Host\""
par Aloha.host[14] txRate 9600bps
attr unit bps
par Aloha.host[14] pkLenBits 952b
attr unit b
par Aloha.host[14] iaTime exponential(3.5s)
attr unit s
par Aloha.host[14] slotTime 0.1s
attr unit s
par Aloha.host[14] x 990.224m
attr unit m
par Aloha.host[14] y 914.195m
attr unit m
par Aloha.host[14] idleAnimationSpeed 1
par Aloha.host[14] transmissionEdgeAnimationSpeed 1e-06
par Aloha.host[14] midTransmissionAnimationSpeed 0.1
par Aloha.host[14] controlAnimationSpeed true
par Aloha.host[15] typename "\"Host\""
par Aloha.host[15] txRate 9600bps
attr unit bps
par Aloha.host[15] pkLenBits 952b
attr unit b
par Aloha.host[15] iaTime exponential(3.5s)
attr unit s
par Aloha.host[15] slotTime 0.1s
attr unit s
par Aloha.host[15] x 819.858m
attr unit m
par Aloha.host[15] y 473.026m
attr unit m
par Aloha.host[15] idleAnimationSpeed 1
par Aloha.host[15] transmissionEdgeAnimationSpeed 1e-06
par Aloha.host[15] midTransmissionAnimationSpeed 0.1
par Aloha.host[15] controlAnimationSpeed true
par Aloha.host[16] typename "\"Host\""
par Aloha.host[16] txRate 9600bps
attr unit bps
par Aloha.host[16] pkLenBits 952b
attr unit b
par Aloha.host[16] iaTime exponential(3.5s)
attr unit s
par Aloha.host[16] slotTime 0.1s
attr unit s
par Aloha.host[16] x 413.201m
attr unit m
par Aloha.host[16] y 678.504m
attr unit m
par Aloha.host[16] idleAnimationSpeed 1
par Aloha.host[16] transmissionEdgeAnimationSpeed 1e-06
par Aloha.host[16] midTransmissionAnimationSpeed 0.1
par Aloha.host[16] controlAnimationSpeed true
par Aloha.host[17] typename "\"Host\""
par Aloha.host[17] txRate 9600bps
attr unit bps
par Aloha.host[17] pkLenBits 952b
attr unit b
par Aloha.host[17] iaTime exponential(3.5s)
attr unit s
par Aloha.host[17] slotTime 0.1s
attr unit s
par Aloha.host[17] x 876.268m
attr unit m
par Aloha.host[17] y 801.721m
attr unit m
par Aloha.host[17] idleAnimationSpeed 1
par Aloha.host[17] transmissionEdgeAnimationSpeed 1e-06
par Aloha.host[17] midTransmissionAnimationSpeed 0.1
par Aloha.host[17] controlAnimationSpeed true
par Aloha.host[18] typename "\"Host\""
par Aloha.host[18] txRate 9600bps
attr unit bps
par Aloha.host[18] pkLenBits 952b
attr unit b
par Aloha.host[18] iaTime exponential(3.5s)
attr unit s
par Aloha.host[18] slotTime 0.1s
attr unit s
par Aloha.host[18] x 823.759m
attr unit m
par Aloha.host[18] y 458.185m
attr unit m
par Aloha.host[18] idleAnimationSpeed 1
par Aloha.host[18] transmissionEdgeAnimationSpeed 1e-06
par Aloha.host[18] midTransmissionAnimationSpeed 0.1
par Aloha.host[18] controlAnimationSpeed true
par Aloha.host[19] typename "\"Host\""
par Aloha.host[19] txRate 9600bps
attr unit bps
par Aloha.host[19] pkLenBits 952b
attr unit b
par Aloha.host[19] iaTime exponential(3.5s)
attr unit s
par Aloha.host[19] slotTime 0.1s
attr unit s
par Aloha.host[19] x 54.4745m
attr unit m
par Aloha.host[19] y 673.835m
attr unit m
par Aloha.host[19] idleAnimationSpeed 1
par Aloha.host[19] transmissionEdgeAnimationSpeed 1e-06
par Aloha.host[19] midTransmissionAnimationSpeed 0.1
par Aloha.host[19] controlAnimationSpeed true
par Aloha typename "\"Aloha\""
par Aloha numHosts 20
par Aloha txRate 9600bps
attr unit bps
par Aloha slotTime 100ms
attr unit ms

